
 OpenBabel02072316273D

 24 26  0  0  0  0  0  0  0  0999 V2000
    0.9941   -0.0153    0.0980 H   0  0  0  0  0  0  0  0  0  0  0  0
    2.0885   -0.0209    0.1357 C   0  0  0  0  0  0  0  0  0  0  0  0
    2.5312   -1.2553    0.8102 C   0  0  0  0  0  0  0  0  0  0  0  0
    3.2330   -1.2637    1.8719 N   0  3  0  0  0  0  0  0  0  0  0  0
    3.6969   -0.0255    2.5627 C   0  0  0  0  0  0  0  0  0  0  0  0
    2.9520   -0.0145    4.3783 Br  0  0  0  0  0  0  0  0  0  0  0  0
    5.6589   -0.0372    2.6006 Br  0  0  0  0  0  0  0  0  0  0  0  0
    3.5105   -2.6443    2.3180 C   0  0  0  0  0  0  0  0  0  0  0  0
    2.8219   -3.4462    1.2282 C   0  0  0  0  0  0  0  0  0  0  0  0
    2.2262   -2.4662    0.3609 O   0  0  0  0  0  0  0  0  0  0  0  0
    2.4732   -0.0245   -0.8895 H   0  0  0  0  0  0  0  0  0  0  0  0
    2.5437    1.2110    0.8065 C   0  0  0  0  0  0  0  0  0  0  0  0
    3.2485    1.2155    1.8662 N   0  3  0  0  0  0  0  0  0  0  0  0
    3.5568    2.5946    2.2967 C   0  0  0  0  0  0  0  0  0  0  0  0
    2.8242    3.4004    1.2390 C   0  0  0  0  0  0  0  0  0  0  0  0
    2.2534    2.4235    0.3518 O   0  0  0  0  0  0  0  0  0  0  0  0
    3.0619   -2.8149    3.2997 H   0  0  0  0  0  0  0  0  0  0  0  0
    4.5878   -2.8236    2.3447 H   0  0  0  0  0  0  0  0  0  0  0  0
    2.0394   -4.0989    1.6277 H   0  0  0  0  0  0  0  0  0  0  0  0
    3.5289   -4.0516    0.6520 H   0  0  0  0  0  0  0  0  0  0  0  0
    4.6362    2.7613    2.2656 H   0  0  0  0  0  0  0  0  0  0  0  0
    3.1629    2.7744    3.2998 H   0  0  0  0  0  0  0  0  0  0  0  0
    3.4995    4.0508    0.6742 H   0  0  0  0  0  0  0  0  0  0  0  0
    2.0208    4.0088    1.6664 H   0  0  0  0  0  0  0  0  0  0  0  0
  1  2  1  0  0  0  0
  2  3  1  0  0  0  0
  2 11  1  0  0  0  0
  2 12  1  0  0  0  0
  3  4  2  0  0  0  0
  3 10  1  0  0  0  0
  4  5  1  0  0  0  0
  4  8  1  0  0  0  0
  5  6  1  0  0  0  0
  5  7  1  0  0  0  0
  5 13  1  0  0  0  0
  8  9  1  0  0  0  0
  8 17  1  0  0  0  0
  8 18  1  0  0  0  0
  9 10  1  0  0  0  0
  9 19  1  0  0  0  0
  9 20  1  0  0  0  0
 12 13  2  0  0  0  0
 12 16  1  0  0  0  0
 13 14  1  0  0  0  0
 14 15  1  0  0  0  0
 14 21  1  0  0  0  0
 14 22  1  0  0  0  0
 15 16  1  0  0  0  0
 15 23  1  0  0  0  0
 15 24  1  0  0  0  0
M  CHG  2   4   1  13   1
M  END
